Version 4
SHEET 1 880 1712
WIRE -2304 64 -2304 32
WIRE -2080 80 -2208 80
WIRE -2144 144 -2144 128
WIRE -2208 160 -2208 80
WIRE -2176 160 -2208 160
WIRE -2080 176 -2080 80
WIRE -2080 176 -2112 176
WIRE -2048 176 -2080 176
WIRE -64 176 -224 176
WIRE -2304 192 -2304 144
WIRE -2176 192 -2304 192
WIRE -2752 224 -2752 208
WIRE -2304 224 -2304 192
WIRE -2144 224 -2144 208
WIRE -2944 272 -2944 256
WIRE -864 288 -1024 288
WIRE -144 288 -144 272
WIRE -224 304 -224 176
WIRE -176 304 -224 304
WIRE -64 320 -64 176
WIRE -64 320 -112 320
WIRE -48 320 -64 320
WIRE -2752 336 -2752 304
WIRE -2304 336 -2304 304
WIRE -592 336 -624 336
WIRE -480 336 -512 336
WIRE -416 336 -480 336
WIRE -288 336 -416 336
WIRE -176 336 -288 336
WIRE -1760 352 -1792 352
WIRE -1648 352 -1680 352
WIRE -1568 352 -1648 352
WIRE -1440 352 -1488 352
WIRE -1328 352 -1376 352
WIRE -416 352 -416 336
WIRE -288 352 -288 336
WIRE -2944 368 -2944 352
WIRE -144 368 -144 352
WIRE -1792 400 -1792 352
WIRE -944 400 -944 384
WIRE -1584 416 -1584 400
WIRE -1024 416 -1024 288
WIRE -976 416 -1024 416
WIRE -1648 432 -1648 352
WIRE -1616 432 -1648 432
WIRE -864 432 -864 288
WIRE -864 432 -912 432
WIRE -848 432 -864 432
WIRE -1328 448 -1328 352
WIRE -1328 448 -1552 448
WIRE -1280 448 -1328 448
WIRE -976 448 -1216 448
WIRE -416 448 -416 416
WIRE -288 448 -288 432
WIRE -2752 464 -2752 416
WIRE -1920 464 -2032 464
WIRE -1616 464 -1856 464
WIRE -944 480 -944 464
WIRE -480 480 -480 336
WIRE -1584 496 -1584 480
WIRE -528 560 -656 560
WIRE -656 608 -656 560
WIRE -480 624 -480 576
WIRE -656 720 -656 688
FLAG -2752 208 IN
FLAG -1584 496 0
FLAG -1584 400 +V
FLAG -416 448 0
FLAG -144 368 0
FLAG -48 320 OUT
FLAG -2944 368 0
FLAG -144 272 +V
FLAG -656 720 0
FLAG -2944 256 +V
FLAG -2752 464 0
FLAG -2304 336 0
FLAG -2048 176 V_ref
FLAG -2144 224 0
FLAG -2144 128 +V
FLAG -2304 32 +V
FLAG -2032 464 IN
FLAG -480 624 0
FLAG -288 448 0
FLAG -1792 400 0
FLAG -944 480 0
FLAG -848 432 OUT
FLAG -944 384 +V
SYMBOL voltage -2752 320 R0
WINDOW 123 0 0 Left 2
WINDOW 39 0 0 Left 2
SYMATTR InstName V1
SYMATTR Value SINE(0 0.5 10K 80u 0 0 3)
SYMBOL voltage -2752 208 R0
WINDOW 123 0 0 Left 2
WINDOW 39 0 0 Left 2
SYMATTR InstName V2
SYMATTR Value SINE(0 0.3 100k 500u 0 0 30)
SYMBOL cap -432 352 R0
SYMATTR InstName C1
SYMATTR Value 100n
SYMBOL voltage -2944 256 R0
WINDOW 123 0 0 Left 2
WINDOW 39 0 0 Left 2
SYMATTR InstName V3
SYMATTR Value 5
SYMBOL voltage -656 592 R0
WINDOW 123 0 0 Left 2
WINDOW 39 0 0 Left 2
SYMATTR InstName V5
SYMATTR Value PULSE(0 5 450u 1e-9 1e-9 100u 1 1)
SYMBOL nmos -528 480 R0
SYMATTR InstName M1
SYMBOL res -496 320 R90
WINDOW 0 0 56 VBottom 2
WINDOW 3 32 56 VTop 2
SYMATTR InstName R2
SYMATTR Value 10
SYMBOL res -2320 48 R0
SYMATTR InstName R3
SYMATTR Value 100k
SYMBOL res -2320 208 R0
SYMATTR InstName R9
SYMATTR Value 100k
SYMBOL res -304 336 R0
SYMATTR InstName R1
SYMATTR Value 1Meg
SYMBOL Opamps\\LTC6244 -2144 176 R0
SYMATTR InstName U1
SYMBOL Opamps\\LTC6244 -144 320 R0
SYMATTR InstName U2
SYMBOL res -1472 336 R90
WINDOW 0 0 56 VBottom 2
WINDOW 3 32 56 VTop 2
SYMATTR InstName R4
SYMATTR Value 1k
SYMBOL res -1776 368 R270
WINDOW 0 32 56 VTop 2
WINDOW 3 0 56 VBottom 2
SYMATTR InstName R5
SYMATTR Value 1k
SYMBOL Opamps\\LTC6244 -1584 448 R0
SYMATTR InstName U3
SYMBOL schottky -1280 464 R270
WINDOW 0 32 32 VTop 2
WINDOW 3 0 32 VBottom 2
SYMATTR InstName D2
SYMATTR Value 5082-2804
SYMATTR Description Diode
SYMATTR Type diode
SYMBOL Opamps\\LTC6244 -944 432 R0
SYMATTR InstName U4
SYMBOL cap -1920 480 R270
WINDOW 0 32 32 VTop 2
WINDOW 3 0 32 VBottom 2
SYMATTR InstName C2
SYMATTR Value 100µ
SYMBOL schottky -1376 336 R90
WINDOW 0 0 32 VBottom 2
WINDOW 3 32 32 VTop 2
SYMATTR InstName D1
SYMATTR Value 5082-2804
SYMATTR Description Diode
SYMATTR Type diode
TEXT -3168 -368 Left 2 !.model 5082-2804 D(Is=22n Rs=25 N=1.08 Cjo=1.6p M=0.5 Eg=.69 Xti=2 Iave=100m Vpk=75 mfg=Avago type=Schottky)
TEXT -2936 48 Left 2 !.tran 0 2m 0 0.000001
TEXT -1784 120 Left 2 !.include lib/LMH6658.lib
TEXT -1784 88 Left 2 !.include lib/LM6152A.MOD
