Version 4
SHEET 1 880 1712
WIRE -2304 64 -2304 32
WIRE -2080 80 -2208 80
WIRE -2144 144 -2144 128
WIRE -2208 160 -2208 80
WIRE -2176 160 -2208 160
WIRE -2080 176 -2080 80
WIRE -2080 176 -2112 176
WIRE -2048 176 -2080 176
WIRE -2304 192 -2304 144
WIRE -2176 192 -2304 192
WIRE 432 192 272 192
WIRE -2752 224 -2752 208
WIRE -2304 224 -2304 192
WIRE -2144 224 -2144 208
WIRE -2944 272 -2944 256
WIRE -864 288 -1024 288
WIRE 352 304 352 288
WIRE 272 320 272 192
WIRE 320 320 272 320
WIRE -2752 336 -2752 304
WIRE -2304 336 -2304 304
WIRE -1328 336 -1648 336
WIRE 432 336 432 192
WIRE 432 336 384 336
WIRE 448 336 432 336
WIRE -96 352 -128 352
WIRE 16 352 -16 352
WIRE 80 352 16 352
WIRE 208 352 80 352
WIRE 320 352 208 352
WIRE -2944 368 -2944 352
WIRE 80 368 80 352
WIRE 208 368 208 352
WIRE 352 384 352 368
WIRE -944 400 -944 384
WIRE -1584 416 -1584 400
WIRE -1024 416 -1024 288
WIRE -976 416 -1024 416
WIRE -1648 432 -1648 336
WIRE -1616 432 -1648 432
WIRE -864 432 -864 288
WIRE -864 432 -912 432
WIRE -848 432 -864 432
WIRE -1408 448 -1552 448
WIRE -1328 448 -1328 336
WIRE -1328 448 -1344 448
WIRE -1168 448 -1328 448
WIRE -1040 448 -1168 448
WIRE -976 448 -1040 448
WIRE -2752 464 -2752 416
WIRE -1920 464 -2032 464
WIRE -1616 464 -1856 464
WIRE -1168 464 -1168 448
WIRE -1040 464 -1040 448
WIRE 80 464 80 432
WIRE 208 464 208 448
WIRE -944 480 -944 464
WIRE -1584 496 -1584 480
WIRE 16 496 16 352
WIRE -1168 560 -1168 528
WIRE -1040 560 -1040 544
WIRE -32 576 -160 576
WIRE -848 608 -1008 608
WIRE -160 624 -160 576
WIRE 16 640 16 592
WIRE -1744 656 -1776 656
WIRE -1632 656 -1664 656
WIRE -1552 656 -1632 656
WIRE -1312 656 -1472 656
WIRE -1776 704 -1776 656
WIRE -928 720 -928 704
WIRE -1568 736 -1568 720
WIRE -1008 736 -1008 608
WIRE -960 736 -1008 736
WIRE -160 736 -160 704
WIRE -1632 752 -1632 656
WIRE -1600 752 -1632 752
WIRE -848 752 -848 608
WIRE -848 752 -896 752
WIRE -832 752 -848 752
WIRE -1392 768 -1536 768
WIRE -1312 768 -1312 656
WIRE -1312 768 -1328 768
WIRE -1152 768 -1312 768
WIRE -1024 768 -1152 768
WIRE -960 768 -1024 768
WIRE -1904 784 -2016 784
WIRE -1600 784 -1840 784
WIRE -1152 784 -1152 768
WIRE -1024 784 -1024 768
WIRE -928 800 -928 784
WIRE -1568 816 -1568 800
WIRE -1152 880 -1152 848
WIRE -1024 880 -1024 864
WIRE -832 928 -992 928
WIRE -1728 992 -1760 992
WIRE -1616 992 -1648 992
WIRE -1536 992 -1616 992
WIRE -1408 992 -1456 992
WIRE -1296 992 -1344 992
WIRE -1760 1040 -1760 992
WIRE -912 1040 -912 1024
WIRE -1552 1056 -1552 1040
WIRE -992 1056 -992 928
WIRE -944 1056 -992 1056
WIRE -1616 1072 -1616 992
WIRE -1584 1072 -1616 1072
WIRE -832 1072 -832 928
WIRE -832 1072 -880 1072
WIRE -816 1072 -832 1072
WIRE -1296 1088 -1296 992
WIRE -1296 1088 -1520 1088
WIRE -1248 1088 -1296 1088
WIRE -1120 1088 -1184 1088
WIRE -992 1088 -1120 1088
WIRE -944 1088 -992 1088
WIRE -1888 1104 -2000 1104
WIRE -1584 1104 -1824 1104
WIRE -1120 1104 -1120 1088
WIRE -992 1104 -992 1088
WIRE -912 1120 -912 1104
WIRE -1552 1136 -1552 1120
WIRE -1120 1200 -1120 1168
WIRE -992 1200 -992 1184
FLAG -2752 208 IN
FLAG -1552 1136 0
FLAG -1552 1040 +V
FLAG 80 464 0
FLAG 352 384 0
FLAG 448 336 OUT
FLAG -2944 368 0
FLAG 352 288 +V
FLAG -160 736 0
FLAG -2944 256 +V
FLAG -2752 464 0
FLAG -2304 336 0
FLAG -2048 176 V_ref
FLAG -2144 224 0
FLAG -2144 128 +V
FLAG -2304 32 +V
FLAG -2000 1104 IN
FLAG 16 640 0
FLAG 208 464 0
FLAG -1760 1040 0
FLAG -912 1120 0
FLAG -816 1072 OUT
FLAG -912 1024 +V
FLAG -1568 816 0
FLAG -1568 720 +V
FLAG -2016 784 IN
FLAG -928 800 0
FLAG -832 752 OUT
FLAG -928 704 +V
FLAG -1120 1200 0
FLAG -992 1200 0
FLAG -1152 880 0
FLAG -1024 880 0
FLAG -1584 496 0
FLAG -1584 400 +V
FLAG -2032 464 IN
FLAG -944 480 0
FLAG -848 432 OUT
FLAG -944 384 +V
FLAG -1168 560 0
FLAG -1040 560 0
FLAG -1776 704 0
SYMBOL voltage -2752 320 R0
WINDOW 123 0 0 Left 2
WINDOW 39 0 0 Left 2
SYMATTR InstName V1
SYMATTR Value SINE(0 0.5 10K 80u 0 0 3)
SYMBOL voltage -2752 208 R0
WINDOW 123 0 0 Left 2
WINDOW 39 0 0 Left 2
SYMATTR InstName V2
SYMATTR Value SINE(0 0.3 100k 500u 0 0 30)
SYMBOL cap 64 368 R0
SYMATTR InstName C1
SYMATTR Value 100n
SYMBOL voltage -2944 256 R0
WINDOW 123 0 0 Left 2
WINDOW 39 0 0 Left 2
SYMATTR InstName V3
SYMATTR Value 5
SYMBOL voltage -160 608 R0
WINDOW 123 0 0 Left 2
WINDOW 39 0 0 Left 2
SYMATTR InstName V5
SYMATTR Value PULSE(0 5 450u 1e-9 1e-9 100u 1 1)
SYMBOL nmos -32 496 R0
SYMATTR InstName M1
SYMBOL res 0 336 R90
WINDOW 0 0 56 VBottom 2
WINDOW 3 32 56 VTop 2
SYMATTR InstName R2
SYMATTR Value 10
SYMBOL res -2320 48 R0
SYMATTR InstName R3
SYMATTR Value 100k
SYMBOL res -2320 208 R0
SYMATTR InstName R9
SYMATTR Value 100k
SYMBOL res 192 352 R0
SYMATTR InstName R1
SYMATTR Value 1Meg
SYMBOL Opamps\\LTC6244 -2144 176 R0
SYMATTR InstName U1
SYMBOL Opamps\\LTC6244 352 336 R0
SYMATTR InstName U2
SYMBOL res -1440 976 R90
WINDOW 0 0 56 VBottom 2
WINDOW 3 32 56 VTop 2
SYMATTR InstName R4
SYMATTR Value 1k
SYMBOL res -1744 1008 R270
WINDOW 0 32 56 VTop 2
WINDOW 3 0 56 VBottom 2
SYMATTR InstName R5
SYMATTR Value 1k
SYMBOL Opamps\\LTC6244 -1552 1088 R0
SYMATTR InstName U3
SYMBOL schottky -1248 1104 R270
WINDOW 0 32 32 VTop 2
WINDOW 3 0 32 VBottom 2
SYMATTR InstName D2
SYMATTR Value 5082-2804
SYMATTR Description Diode
SYMATTR Type diode
SYMBOL Opamps\\LTC6244 -912 1072 R0
SYMATTR InstName U4
SYMBOL cap -1888 1120 R270
WINDOW 0 32 32 VTop 2
WINDOW 3 0 32 VBottom 2
SYMATTR InstName C2
SYMATTR Value 100µ
SYMBOL schottky -1344 976 R90
WINDOW 0 0 32 VBottom 2
WINDOW 3 32 32 VTop 2
SYMATTR InstName D1
SYMATTR Value 5082-2804
SYMATTR Description Diode
SYMATTR Type diode
SYMBOL Opamps\\LTC6244 -1568 768 R0
SYMATTR InstName U5
SYMBOL schottky -1392 784 R270
WINDOW 0 32 32 VTop 2
WINDOW 3 0 32 VBottom 2
SYMATTR InstName D3
SYMATTR Value 5082-2804
SYMATTR Description Diode
SYMATTR Type diode
SYMBOL Opamps\\LTC6244 -928 752 R0
SYMATTR InstName U6
SYMBOL cap -1904 800 R270
WINDOW 0 32 32 VTop 2
WINDOW 3 0 32 VBottom 2
SYMATTR InstName C3
SYMATTR Value 100µ
SYMBOL cap -1136 1104 R0
SYMATTR InstName C4
SYMATTR Value 100n
SYMBOL res -1008 1088 R0
SYMATTR InstName R6
SYMATTR Value 1Meg
SYMBOL cap -1168 784 R0
SYMATTR InstName C5
SYMATTR Value 100n
SYMBOL res -1040 768 R0
SYMATTR InstName R7
SYMATTR Value 1Meg
SYMBOL Opamps\\LTC6244 -1584 448 R0
SYMATTR InstName U7
SYMBOL schottky -1408 464 R270
WINDOW 0 32 32 VTop 2
WINDOW 3 0 32 VBottom 2
SYMATTR InstName D4
SYMATTR Value 5082-2804
SYMATTR Description Diode
SYMATTR Type diode
SYMBOL Opamps\\LTC6244 -944 432 R0
SYMATTR InstName U8
SYMBOL cap -1920 480 R270
WINDOW 0 32 32 VTop 2
WINDOW 3 0 32 VBottom 2
SYMATTR InstName C6
SYMATTR Value 100µ
SYMBOL cap -1184 464 R0
SYMATTR InstName C7
SYMATTR Value 100n
SYMBOL res -1056 448 R0
SYMATTR InstName R8
SYMATTR Value 1Meg
SYMBOL res -1456 640 R90
WINDOW 0 0 56 VBottom 2
WINDOW 3 32 56 VTop 2
SYMATTR InstName R10
SYMATTR Value 28
SYMBOL res -1760 672 R270
WINDOW 0 32 56 VTop 2
WINDOW 3 0 56 VBottom 2
SYMATTR InstName R11
SYMATTR Value 500k
TEXT -3168 -368 Left 2 !.model 5082-2804 D(Is=22n Rs=25 N=1.08 Cjo=1.6p M=0.5 Eg=.69 Xti=2 Iave=100m Vpk=75 mfg=Avago type=Schottky)
TEXT -2936 48 Left 2 !.tran 0 2m 0 0.000001
TEXT -1784 120 Left 2 !.include lib/LMH6658.lib
TEXT -1784 88 Left 2 !.include lib/LM6152A.MOD
